data_Example
_cell_length_a       10.00000
_cell_length_b       10.00000
_cell_length_c       10.00000
_cell_angle_alpha    90.00000
_cell_angle_beta     90.00000
_cell_angle_volume 2000.00
_cell_angle_gamma    90.00000
_symmetry_space_group_name_H-M 'P 1'
loop_
 _atom_site_label
 _atom_site_fract_x
 _atom_site_fract_y
 _atom_site_fract_z
 _atom_site_occupancy
H 0.00000 0.00000 0.00000 1
O 0.50000 0.50000 0.50000 1
